This is sample text in README file.
New line...
